/batch
/config,noeldb,1     ! force off writing results to database
*get,_wallstrt,active,,time,wall
! ANSYS input file written by Workbench version 2024 R2
! File used for geometry attach: C:\Users\Gabriel Yu\AppData\Local\Temp\WB_Gabriel Yu_10864_2\wbnew_files\dp0\SYS\DM\SYS.dsco
/title,wbnew--Static Structural (A5)
! ****** Begin Custom Load Command Snippet ******
/COM, ACT Extensions:
/COM,     LSDYNA, 2024.2
/COM,     5f463412-bd3e-484b-87e7-cbc0a665e474, wbex
/COM,/COM,     ANSYSMotion, 2024.2
/COM,     20180725-3f81-49eb-9f31-41364844c769, wbex
/COM,
! ****** End   Custom Load Command Snippet ******
*DIM,_wb_ProjectScratch_dir,string,248
_wb_ProjectScratch_dir(1) = 'C:\Users\Gabriel Yu\AppData\Local\Temp\WB_Gabriel Yu_10864_2\_ProjectScratch\Scr8D73\'
*DIM,_wb_SolverFiles_dir,string,248
_wb_SolverFiles_dir(1) = 'C:\Users\Gabriel Yu\AppData\Local\Temp\WB_Gabriel Yu_10864_2\wbnew_files\dp0\SYS\MECH\'
*DIM,_wb_userfiles_dir,string,248
_wb_userfiles_dir(1) = 'C:\Users\Gabriel Yu\AppData\Local\Temp\WB_Gabriel Yu_10864_2\wbnew_files\user_files\'
/com,--- Data in consistent NMM units. See Solving Units in the help system for more information.
/units,MPA
/nopr
/wb,file,start              !  signify a WB generated input file
/prep7
! Turn off shape checking because checks already performed inside WB mesher.
! See help system for more information.
SHPP,OFF,,NOWARN
/nolist
etcon,set             ! allow ANSYS to choose best KEYOP's for 180x elements, resets any applicable keyopt to MAPDL defaults
/com,*********** Nodes for the whole assembly ***********
nblock,3,,14720
(1i9,3e20.9e3)
        1    -3.962499986E+01     1.335000000E+01     2.317743097E+01
        2    -3.962499986E+01     1.335000000E+01     1.947743447E+01
        3    -3.777500414E+01     1.335000000E+01     2.132743272E+01
        4    -4.147499558E+01     1.335000000E+01     2.132743272E+01
        5    -1.250000000E+01    -2.000000000E+00     2.430063510E+01
        6    -1.250000000E+01    -2.000000000E+00     1.900063509E+01
        7    -1.514999963E+01    -2.000000000E+00     2.165063509E+01
        8    -9.850000372E+00    -2.000000000E+00     2.165063510E+01
        9    -1.250000000E+01    -2.000000000E+00     1.665063541E+01
       10    -1.250000000E+01    -2.000000000E+00     2.665063478E+01
       11    -1.749999930E+01    -2.000000000E+00     2.165063509E+01
       12    -7.500000701E+00    -2.000000000E+00     2.165063510E+01
       13     2.500000000E+01    -2.000000000E+00     2.650000002E+00
       14     2.500000000E+01    -2.000000000E+00    -2.650000001E+00
       15     2.235000037E+01    -2.000000000E+00    -2.122739946E-10
       16     2.764999963E+01    -2.000000000E+00     2.122751159E-10
       17     2.500000000E+01    -2.000000000E+00    -4.999999681E+00
       18     2.500000000E+01    -2.000000000E+00     4.999999681E+00
       19     2.000000070E+01    -2.000000000E+00    -1.025518760E-09
       20     2.999999930E+01    -2.000000000E+00     1.025521022E-09
! ... 13363 like lines cut
/wb,elem,start            !  set before creation of elements
/com,*********** Elements for Body 1 'SYS\ DE       27' ***********
et,1,187
eblock,19,solid,,7242
(19i9)
        1        1        1        1        0        0        0        0       10        0        1      746     2091     1186     2084     7907    10412     7904     7906
    13349    10411
        1        1        1        1        0        0        0        0       10        0        2      745     1186      746     2091     7898     7904     7897     7901
    10412     7907
        1        1        1        1        0        0        0        0       10        0        3      746     2032     2091     2084     7905    13303     7907     7906
    13302    13349
        1        1        1        1        0        0        0        0       10        0        4      427     2091      746     2032     5688     7907     5684     5687
    13303     7905
        1        1        1        1        0        0        0        0       10        0        5      427      746     2091      745     5684     7907     5688     5683
     7897     7901
        1        1        1        1        0        0        0        0       10        0        6     1186     2091     1909     2084    10412    13052    10410    10411
    13349    13051
        1        1        1        1        0        0        0        0       10        0        7     1186     2091     1198     1909    10412    10472    10409    10410
    13052    10468
        1        1        1        1        0        0        0        0       10        0        8      745     1198     1186     2091     7899    10409     7898     7901
    10472    10412
        1        1        1        1        0        0        0        0       10        0        9      474     2091     2032     2084     5993    13303     5991     5992
    13349    13302
        1        1        1        1        0        0        0        0       10        0       10      197     1217      427     2091     3735     5685     3733     3743
    10590     5688
! ... 14465 like lines cut
! Material Id = {304A453B-0982-447C-AF21-8DCFF130CF7B}
/wb,elem,end               !  done creating elements
/com,*********** Send User Defined Coordinate System(s) ***********
csys,0
toffst,273.15,      ! Temperature offset from absolute zero
/com,*********** Set Reference Temperature ***********
tref,22.
/wb,mat,start              !  starting to send materials
/com,*********** Send Materials ***********
MP,DENS,1,1.24e-09,	! tonne mm^-3
MP,EX,1,3500,	! tonne s^-2 mm^-1
MP,NUXY,1,0.34,
MP,UVID,1,ee4e3352-b78f-4c4e-a991-4ac28ba70fb0

/wb,mat,end                !  done sending materials
!************************* Model Summary ********************
!SYS\ DE       27,	pla,	matid,	1
!************************* End Model Summary ********************
! get the diagonal of the bounding box. Needed later for other things
*get,_xmin,node,,mnloc,x
*get,_ymin,node,,mnloc,y
*get,_zmin,node,,mnloc,z
*get,_xmax,node,,mxloc,x
*get,_ymax,node,,mxloc,y
*get,_zmax,node,,mxloc,z
_ASMDIAG=(_xmax-_xmin)*(_xmax-_xmin)+(_ymax-_ymin)*(_ymax-_ymin)+(_zmax-_zmin)*(_zmax-_zmin)
_ASMDIAG=SQRT(_ASMDIAG)
/wb,contact,start          !  starting to send contact
/wb,contact,end            !  done creating contacts
/golist
/wb,load,start             !  starting to send loads
/com,*********** Fixed Supports ***********
CMBLOCK,_FIXEDSU,NODE,      283
(8i10)
       150       151       152       153       154       155       156       157
       158       159       160       161       162       167       168       169
       170       171       172       177       178       179       180       181
       370       373       374       375       376       377       378       379
       380       381       382       383       384       385       386       387
       388       389       390       391       392       393       394       395
       396       397       398       399       400       401       402       403
       404       405      1529      1530      1531      1532      1533      1534
      1535      1536      1537      1538      1539      1540      1541      1542
      1543      1544      1545      1546      1547      1548      1549      1550
      1551      1552      1553      3348      3349      3350      3351      3352
      3358      3359      3360      3361      3362      3363      3366      3367
      3368      3372      3373      3374      3379      3380      3381      3382
      3384      3385      3386      3387      3388      3391      3392      3393
      3396      3397      3398      3400      3401      3402      3403      3404
      3406      3407      3408      3409      3410      3417      3418      3419
      3423      3424      3428      3429      3430      3431      3461      3463
      3464      3465      3466      3468      3470      3471      3472      3477
      3478      3479      3482      3483      3484      3487      3488      3489
      3490      3493      3494      3523      3524      3525      3531      3532
! ... 16 like lines cut
cmsel,s,_FIXEDSU
d,all,all
nsel,all
/com,*********** Define Force Using Surface Effect Elements ***********
local,12,0,0.,0.,0.,0.,0.,0.
csys,0
et,2,154
mat,2
eblock,10,,,13
(15i9)
    10843        2        2        2       12      514     1084      515      515     6316     6324      515     6311
    10844        2        2        2       12      336     1083      516      516     4880     6330      516     4879
    10845        2        2        2       12      516     1083     2154     2154     6330    10057     2154     6335
    10846        2        2        2       12      333      513     2154     2154     4856     6310     2154     4862
    10847        2        2        2       12      336      516     2135     2135     4879     6334     2135     4886
    10848        2        2        2       12      515     2135      516      516     6328     6334      516     6320
    10849        2        2        2       12      335      515     1084     1084     4873     6324     1084     4874
    10850        2        2        2       12      335     1085      515      515     4875     6325      515     4873
    10851        2        2        2       12      334     1084      514      514     4866     6316      514     4865
    10852        2        2        2       12      513      516     2154     2154     6305     6335     2154     6310
    10853        2        2        2       12      515     1085     2135     2135     6325    10063     2135     6328
    10854        2        2        2       12      336     2135     1085     1085     4886    10063     1085     4881
    10855        2        2        2       12      333     2154     1083     1083     4862    10057     1083     4857
-1
esel,s,type,,2
keyop,2,2,1         ! Apply load in local coordinate system
keyop,2,7,1         ! Use original area so load is constant in large deformation
esel,all
/com,*********** Define Force Using Surface Effect Elements ***********
local,13,0,0.,0.,0.,0.,0.,0.
csys,0
et,3,154
mat,3
eblock,10,,,15
(15i9)
    10856        3        3        3       13      330      507      510      510     4829     6250      510     4830
    10857        3        3        3       13      508     1142      509      509     6263     6272      509     6260
    10858        3        3        3       13      329     1141     1142     1142     4820    10252     1142     4821
    10859        3        3        3       13      509     1142     1141     1141     6272    10252     1141     6271
    10860        3        3        3       13      327      507      330      330     4800     4829      330     4799
    10861        3        3        3       13      509     1141      510      510     6271     6278      510     6268
    10862        3        3        3       13      329     1710     1141     1141     4825    10255     1141     4820
    10863        3        3        3       13      330      510     1141     1141     4830     6278     1141     4831
    10864        3        3        3       13      329     1142     1711     1711     4821    10259     1711     4826
    10865        3        3        3       13      330     1141     1710     1710     4831    10255     1710     4835
    10866        3        3        3       13      328     2163     1142     1142     4819    10264     1142     4813
    10867        3        3        3       13     2132      328     1142     1142     4818     4813     1142    10262
    10868        3        3        3       13      328     2132      508      508     4818     6267      508     4811
    10869        3        3        3       13     2132     1142      508      508    10262     6263      508     6267
    10870        3        3        3       13     2163     1711     1142     1142    12323    10259     1142    10264
-1
esel,s,type,,3
keyop,3,2,1         ! Apply load in local coordinate system
keyop,3,7,1         ! Use original area so load is constant in large deformation
esel,all
/com,*********** Define Force Using Surface Effect Elements ***********
local,14,0,0.,0.,0.,0.,0.,0.
csys,0
et,4,154
mat,4
eblock,10,,,11
(15i9)
    10871        4        4        4       14      302     1089      498      498     4660     6184      498     4659
    10872        4        4        4       14      496     1091      497      497     6171     6178      497     6166
    10873        4        4        4       14      498     1089     2153     2153     6184    10078     2153     6190
    10874        4        4        4       14      299      495     2153     2153     4633     6164     2153     4638
    10875        4        4        4       14      497     1092      498      498     6179     6185      498     6174
    10876        4        4        4       14      302      498     1092     1092     4659     6185     1092     4661
    10877        4        4        4       14      301      497     1091     1091     4651     6178     1091     4653
    10878        4        4        4       14      301     1092      497      497     4654     6179      497     4651
    10879        4        4        4       14      300     1091      496      496     4644     6171      496     4641
    10880        4        4        4       14      495      498     2153     2153     6160     6190     2153     6164
    10881        4        4        4       14      299     2153     1089     1089     4638    10078     1089     4634
-1
esel,s,type,,4
keyop,4,2,1         ! Apply load in local coordinate system
keyop,4,7,1         ! Use original area so load is constant in large deformation
esel,all
/com,*********** Define Force Using Surface Effect Elements ***********
local,15,0,0.,0.,0.,0.,0.,0.
csys,0
et,5,154
mat,5
eblock,10,,,17
(15i9)
    10882        5        5        5       15     2159     1144      491      491    10278     6129      491     6132
    10883        5        5        5       15      293     2136      296      296     4583     4615      296     4572
    10884        5        5        5       15      490     2159      491      491     6124     6132      491     6117
    10885        5        5        5       15      295     1143     1144     1144     4593    10265     1144     4594
    10886        5        5        5       15      491     1144     1143     1143     6129    10265     1143     6128
    10887        5        5        5       15      296     2136      492      492     4615     6138      492     4604
    10888        5        5        5       15      491     1143      492      492     6128     6136      492     6125
    10889        5        5        5       15      295     1704     1143     1143     4597    10267     1143     4593
    10890        5        5        5       15      296      492     1143     1143     4604     6136     1143     4605
    10891        5        5        5       15      295     1144     1705     1705     4594    10273     1705     4598
    10892        5        5        5       15      296     1143     1704     1704     4605    10267     1704     4609
    10893        5        5        5       15      293      489     2136     2136     4573     6116     2136     4583
    10894        5        5        5       15      294     2162     1144     1144     4592    10279     1144     4587
    10895        5        5        5       15      294     2159      490      490     4591     6124      490     4585
    10896        5        5        5       15      294     1144     2159     2159     4587    10278     2159     4591
    10897        5        5        5       15     2136      489      492      492     6116     6110      492     6138
    10898        5        5        5       15     2162     1705     1144     1144    12305    10273     1144    10279
-1
esel,s,type,,5
keyop,5,2,1         ! Apply load in local coordinate system
keyop,5,7,1         ! Use original area so load is constant in large deformation
esel,all
/com,*********** Define Force Using Surface Effect Elements ***********
local,16,0,0.,0.,0.,0.,0.,0.
csys,0
et,6,154
mat,6
eblock,10,,,9
(15i9)
    10899        6        6        6       16      477      776      779      779     6010     8068      779     6011
    10900        6        6        6       16      478     1087      777      777     6026     8076      777     6023
    10901        6        6        6       16      777     1087      778      778     8076     8081      778     8071
    10902        6        6        6       16      480      779     1088     1088     6039     8085     1088     6040
    10903        6        6        6       16      479     1088      778      778     6034     8082      778     6031
    10904        6        6        6       16      778     1088      779      779     8082     8085      779     8079
    10905        6        6        6       16      479      778     1087     1087     6031     8081     1087     6033
    10906        6        6        6       16      477      779     2148     2148     6011     8090     2148     6020
    10907        6        6        6       16      779      480     2148     2148     6039     6045     2148     8090
-1
esel,s,type,,6
keyop,6,2,1         ! Apply load in local coordinate system
keyop,6,7,1         ! Use original area so load is constant in large deformation
esel,all
/com,*********** Define Force Using Surface Effect Elements ***********
local,17,0,0.,0.,0.,0.,0.,0.
csys,0
et,7,154
mat,7
eblock,10,,,13
(15i9)
    10908        7        7        7       17      772     1140     1139     1139     8039    10241     1139     8038
    10909        7        7        7       17      472     1140      771      771     5970     8033      771     5969
    10910        7        7        7       17      771     1140      772      772     8033     8039      772     8030
    10911        7        7        7       17      473     1139     1140     1140     5975    10241     1140     5976
    10912        7        7        7       17      471      770      474      474     5959     5983      474     5958
    10913        7        7        7       17      474      773     1139     1139     5984     8044     1139     5985
    10914        7        7        7       17      772     1139      773      773     8038     8044      773     8037
    10915        7        7        7       17      473     1716     1139     1139     5979    10242     1139     5975
    10916        7        7        7       17      474      770      773      773     5983     8021      773     5984
    10917        7        7        7       17      473     1140     1717     1717     5976    10246     1717     5980
    10918        7        7        7       17      474     1139     1716     1716     5985    10242     1716     5989
    10919        7        7        7       17      472     2160     1140     1140     5974    10251     1140     5970
    10920        7        7        7       17     2160     1717     1140     1140    12343    10246     1140    10251
-1
esel,s,type,,7
keyop,7,2,1         ! Apply load in local coordinate system
keyop,7,7,1         ! Use original area so load is constant in large deformation
esel,all
/gst,on,on
fini
*get,_numnode,node,0,count
*get,_numelem,elem,0,count
*get, _MAXELEMNUM, elem, 0, NUM, MAX
*get, _MAXNODENUM, node, 0, NUM, MAX
*get, _MAXELEMTYPE, etyp, 0, NUM, MAX
*get, _MAXREALCONST, rcon, 0, NUM, MAX
/go
/wb,load,end               !  done creating loads
/com,--- Number of total nodes = %_numnode%
/com,--- Number of contact elements = 78
/com,--- Number of spring elements = 0
/com,--- Number of bearing elements = 0
/com,--- Number of solid elements = 7242
/com,--- Number of condensed parts = 0
/com,--- Number of total elements = %_numelem%
*get,_wallbsol,active,,time,wall
/com,****************************************************************************
/com,*************************    SOLUTION       ********************************
/com,****************************************************************************
/solu
antype,0                   ! static analysis
_thickRatio=  1     ! Ratio of thick parts in the model
eqsl,pcg,1e-8,,,,,,1
cntr,print,1               ! print out contact info and also make no initial contact an error
cncheck,dmp		!	Enable program controlled contact splitting for distributed memory parallel run
dmpoption,emat,no             ! Don't combine emat file for DANSYS
dmpoption,esav,no             ! Don't combine esav file for DANSYS
nldiag,cont,iter           ! print out contact info each equilibrium iteration
rescontrol,,none                 ! Do not keep any restart files
/com,****************************************************
/com,******************* SOLVE FOR LS 1 OF 1 ****************
esel,s,type,,2
nsle
sfe,all,1,pres,1,9.59442720464061e-004
sfe,all,2,pres,1,8.21998314743287e-002
sfe,all,3,pres,1,-5.53934497846074e-004
esel,s,type,,3
nsle
sfe,all,1,pres,1,-1.01322096457859e-003
sfe,all,2,pres,1,8.12102949375024e-002
sfe,all,3,pres,1,5.84983379111593e-004
esel,s,type,,4
nsle
sfe,all,1,pres,1,-9.59489381253273e-004
sfe,all,2,pres,1,8.22038291168433e-002
sfe,all,3,pres,1,-5.53961437464553e-004
esel,s,type,,5
nsle
sfe,all,1,pres,1,1.01134601988261e-003
sfe,all,2,pres,1,8.10600169457568e-002
sfe,all,3,pres,1,5.83900879319109e-004
esel,s,type,,6
nsle
sfe,all,1,pres,1,0.
sfe,all,2,pres,1,8.22084346939641e-002
sfe,all,3,pres,1,1.10798494775831e-003
esel,s,type,,7
nsle
sfe,all,1,pres,1,0.
sfe,all,2,pres,1,8.12112327970927e-002
sfe,all,3,pres,1,-1.1699802696203e-003
nsel,all
esel,all
/nopr
/gopr
nsub,1,1,1
time,1.
outres,erase
outres,all,none
outres,nsol,all,
outres,rsol,all
outres,eangl,all
outres,etmp,all
outres,veng,all
outres,strs,all,
outres,epel,all,
outres,eppl,all,
outres,cont,all,
! *********** WB SOLVE COMMAND ***********
! check interactive state
*get,ANSINTER_,active,,int
*if,ANSINTER_,ne,0,then
/eof
*endif
solve
/com *************** Write FE CONNECTORS ********* 
CEWRITE,file,ce,,INTE
/com,****************************************************
/com,*************** FINISHED SOLVE FOR LS 1 *************
*get,_wallasol,active,,time,wall
/nopr
*get,_numnode,node,0,count
*get,_numelem,elem,0,count
*get, _MAXELEMNUM, elem, 0, NUM, MAX
*get, _MAXNODENUM, node, 0, NUM, MAX,,,INTERNAL
*get, _MAXELEMTYPE, etyp, 0, NUM, MAX
*get, _MAXREALCONST, rcon, 0, NUM, MAX
*get,_NSOLTHREADS,active,0,ntfs
*get,_NSOLPROCESSES,active,0,npfs
/gopr
*get,_PCGITER,active,,solu,cgiter
/post1
xmlo,ENCODING,ISO-8859-1
xmlo,parm
/xml,parm,xml
fini
/gopr
*get,_walldone,active,,time,wall
_preptime=(_wallbsol-_wallstrt)*3600
_solvtime=(_wallasol-_wallbsol)*3600
_posttime=(_walldone-_wallasol)*3600
_totaltim=(_walldone-_wallstrt)*3600
*get,_dlbratio,active,0,solu,dlbr
*get,_combtime,active,0,solu,comb
*get,_ssmode,active,0,solu,ssmm
*get,_ndofs,active,0,solu,ndof
*get,_sol_end_time,active,0,set,time
*if,_sol_end_time,eq,1.000000,then
/fclean				!clean distributed files
*endif
/com,--- Total number of nodes = %_numnode%
/com,--- Total number of elements = %_numelem%
/com,--- Element load balance ratio = %_dlbratio%
/com,--- Time to combine distributed files = %_combtime%
/com,--- Sparse memory mode = %_ssmode%
/com,--- Number of DOF = %_ndofs%
/wb,file,end               ! done with WB generated input
